%nprocshared=32
%chk=H3O.chk
# b3lyp/6-31+g(d) opt freq scrf empiricaldispersion=gd3bj

Title

1 1
 O                 -0.27182780    0.44066183    0.00000000
 H                  0.68817220    0.44066183    0.00000000
 H                 -0.59228239    1.34559766    0.00000000
 H                 -1.04067219   -0.15941183    0.00000000

