%nprocshared=32
%chk=xichun.chk
# opt freq b3lyp/6-31+g(d) scrf empiricaldispersion=gd3bj

DFGFSDGFSDGSFD

0 1
 C                  0.24047824   -0.44447803    1.13841367
 H                  0.50377224   -1.48781503    1.31685767
 H                  0.51404824    0.29652497    1.88765567
 C                 -0.80306924   -0.09454397    0.13780833
 C                 -1.33086124    1.28382203   -0.09102267
 H                 -2.41859124    1.28356503    0.04074433
 H                 -0.88422324    1.99791703    0.60215333
 H                 -1.12387324    1.59810603   -1.12029067
 O                 -1.34563624   -0.98718197   -0.70296067
 H                 -1.01179224   -1.88706797   -0.53100067

