%nprocshared=32
%chk=intermediate.chk
# b3lyp/6-31+g(d) opt freq scrf empiricaldispersion=gd3bj

Title

1 1
 C                  1.66742076    1.26402576    0.02460208
 H                  2.13502776    1.36182976    1.01439208
 H                  1.01393276    2.12089176   -0.15931992
 H                  2.48211476    1.23677976   -0.70985792
 C                  0.89043776   -0.02421724   -0.01597592
 C                  1.67239776   -1.30933924    0.02987008
 H                  2.24158176   -1.40895724   -0.90495192
 H                  2.40556376   -1.27594524    0.84546608
 H                  1.00647776   -2.16827324    0.14767708
 O                 -0.44971653   -0.02684784   -0.09179701
 H                 -1.51288713    0.94419253   -0.24682002

