%nprocshared=32
%chk=IRC.chk
# irc=(calcfc,maxpoints=20) b3lyp/6-31+g(d) scrf iop(3/124=40)

nbvmvb

1 1
 C                  1.58609900    1.28803400    0.01764500
 H                  2.05370600    1.38583800    1.00743500
 H                  0.93261100    2.14490000   -0.16627700
 H                  2.40079300    1.26078800   -0.71681500
 C                  0.80911600   -0.00020900   -0.02293300
 C                  1.59107600   -1.28533100    0.02291300
 H                  2.16026000   -1.38494900   -0.91190900
 H                  2.32424200   -1.25193700    0.83850900
 H                  0.92515600   -2.14426500    0.14072000
 O                 -0.42120300   -0.00262400   -0.09254000
 O                 -2.89731300    0.00058900    0.12639700
 H                 -2.28693600    0.77207200   -0.01085200
 H                 -2.28329000   -0.77145400    0.00844100
 H                 -3.59616000   -0.00968000   -0.56585500

