%nprocshared=32
%chk=OHTS1.chk
# opt=(calcfc,ts,noeigen,maxcycles=6000) freq b3lyp/6-31+g(d) scrf
empiricaldispersion=gd3bj

fzgsdfgsfdg

-1 1
 C                 -1.34516800    1.22809600   -0.00188200
 H                 -0.83370000    1.81977100    0.75910700
 H                 -2.42663600    1.19415900    0.19326200
 H                 -1.18141400    1.64061200   -1.00584800
 C                 -0.76493600   -0.15354200   -0.02693200
 C                  0.34450200   -0.51412900    0.95814900
 H                  0.36061600    0.05974400    1.89743400
 H                  0.67627600   -1.56924500    1.05582300
 H                  1.13720337    0.08533948    0.14458016
 O                 -1.23638100   -1.13070300   -0.58070000
 O                  2.01280346    0.82537940   -0.48375721
 H                  2.42195330   -0.03969777   -0.72230718

